test/test_files/input_tests/raw_generator_mbase_warning.raw
0,   100.00, 26, 0, 1,  60.00
RAW generator MBASE plausibility warning regression
Generator output is intentionally more than four times MBASE.
   8060,'BUS8060 ', 100.0000,2,     0.000,     0.000,   2,   2,1.02796,  44.8566, 1
0 / END OF BUS DATA, BEGIN LOAD DATA
8060,1,1,1,1,0.00,0.00,0,0,0,0,1
0 / END OF LOAD DATA, BEGIN FIXED SHUNT DATA
0 / END OF FIXED SHUNT DATA, BEGIN GENERATOR DATA
8060,'1 ',    11.970,    44.180,   44.620,  -25.740,1.02796,     0,     2.0000,   0.0000,   0.1000,   0.0000,   0.0000,1.0000,1,  100.0,    67.20,     0.00,   1,1.0000,   0,0.0000,   0,0.0000,   0,0.0000
0 / END OF GENERATOR DATA, BEGIN BRANCH DATA
0 / END OF BRANCH DATA, BEGIN TRANSFORMER DATA
0 / END OF TRANSFORMER DATA, BEGIN AREA DATA
0 / END OF AREA DATA, BEGIN TWO-TERMINAL DC DATA
0 / END OF TWO-TERMINAL DC DATA, BEGIN VSC DC LINE DATA
0 / END OF VSC DC LINE DATA, BEGIN SWITCHED SHUNT DATA
0 / END OF SWITCHED SHUNT DATA, BEGIN IMPEDANCE CORRECTION DATA
0 / END OF IMPEDANCE CORRECTION DATA, BEGIN MULTI-TERMINAL DC DATA
0 / END OF MULTI-TERMINAL DC DATA, BEGIN MULTI-SECTION LINE DATA
0 / END OF MULTI-SECTION LINE DATA, BEGIN ZONE DATA
0 / END OF ZONE DATA, BEGIN INTER-AREA TRANSFER DATA
0 / END OF INTER-AREA TRANSFER DATA, BEGIN OWNER DATA
0 / END OF OWNER DATA, BEGIN FACTS DEVICE DATA
0 / END OF FACTS DEVICE DATA
Q
